Circuit: * C:\Users\mkebbi\Documents\LTspiceXVII\lab2.asc

Direct Newton iteration for .op point succeeded.

Date: Thu Nov 22 15:53:03 2018
Total elapsed time: 0.103 seconds.

tnom = 27
temp = 27
method = modified trap
totiter = 2094
traniter = 2088
tranpoints = 1045
accept = 1045
rejected = 0
matrix size = 18
fillins = 1
solver = Normal
Matrix Compiler1: 1.16 KB object code size  0.4/0.1/[0.1]
Matrix Compiler2: 1.54 KB object code size  0.3/0.2/[0.1]

