Circuit: * C:\Users\mkebbi\Documents\LTspiceXVII\Reverse Protection - MOSFET.asc

Direct Newton iteration for .op point succeeded.

Date: Fri Nov 16 22:28:42 2018
Total elapsed time: 0.117 seconds.

tnom = 27
temp = 27
method = modified trap
totiter = 2758
traniter = 2752
tranpoints = 1081
accept = 1068
rejected = 13
matrix size = 8
fillins = 2
solver = Normal
Matrix Compiler1: 576 bytes object code size  0.2/0.1/[0.1]
Matrix Compiler2: off  [0.1]/0.1/0.1

